%mem=20GB
%NProcShared=6
#P b2plypd3/cc-pvtz
# SCF=(xqc)
# POpt=()
# int=ultrafine

comment: 

0 2
C   -1.019988   0.548329   1.180255
C   -1.185832   0.146949   2.622928
C    0.276187   0.786102   0.533205
H   -1.877271   1.071148   0.753893
O   -0.449758  -0.422927   0.283935
C    1.622518   0.634409   1.183749
H    0.267001   1.468781  -0.317219
H   -0.318044  -0.401244   2.995075
H   -1.325701   1.042258   3.238643
H   -2.067380  -0.489927   2.743884
H    2.334682   0.242536   0.450624
H    1.989318   1.606350   1.529969
H    1.595596  -0.054713   2.030399
Cl   0.293863  -0.661876  -2.411145

