%mem=20GB
%NProcShared=6
#P b2plypd3/cc-pvtz
# SCF=(xqc)
# POpt=()
# int=ultrafine

comment: 

0 2
C  
C  1    R1 
C  1    R2  2    A2 
H  1    R3  2    A3  3    D3 
O  3    R4  1    A4  2    D4 
C  3    R5  1    A5  5    D5 
H  3    R6  1    A6  5    D6 
H  2    R7  1    A7  3    D7 
H  2    R8  1    A8  8    D8 
H  2    R9  1    A9  8    D9 
H  6   R10  3   A10  1   D10 
H  6   R11  3   A11  11   D11 
H  6   R12  3   A12  11   D12 
X  7   R13  3   A13  1   D13 
Cl 7   R14  14   A14  3   D14 
  Variables:
R1          1.4979
R2          1.5057
R3          1.0836
R4          1.4335
R5          1.4986
R6          1.083 
R7          1.0887
R8          1.0897
R9          1.0852
R10         1.0853
R11         1.0881
R12         1.0896
R14         2.5607
A2        123.4867
A3        114.9051
A4         58.1338
A5        123.8345
A6        116.6871
A7        109.8366
A8        109.3007
A9        112.1094
A10       112.0877
A11       110.0254
A12       109.1362
A14       102.294 
D3        205.042 
D4        104.7887
D5        256.3795
D6        101.2999
D7         96.1955
D8        118.6659
D9        238.5029
D10        22.5118
D11       238.4288
D12       119.6697
D14        88.6409
  Constants:
R13         1.0   
A13        90.0   
D13       164.9635
