%mem=20GB
%NProcShared=6
#P b2plypd3/cc-pvtz
# SCF=(xqc)
# POpt=()
# int=ultrafine

comment: 

0 2
C    -0.333052    0.337327    1.278295
C    -0.392741    0.101474    2.756124
C     0.891826    0.357436    0.515936
H    -1.202727    0.807116    0.833363
O     0.150161   -0.816485    0.459930
C     2.336359    0.398062    0.824856
H    -0.605601   -0.574957   -1.286044
H     0.501031   -0.405697    3.110368
H    -1.263155   -0.498360    3.018084
H    -0.477184    1.058798    3.271186
H     2.898089   -0.121053    0.050435
H     2.679437    1.429378    0.867387
H     2.558067   -0.082282    1.783589
Cl   -1.073967   -0.082653   -2.390716

