14
* (null), Energy   -1000.0000000
C    -1.130455   -0.768548   -0.057344   -0.288862   -0.068194   -0.071418
C    -2.531694   -0.669718   -0.575302   -0.363816    0.309802    0.186006
C    -0.256009    0.380627    0.144447    0.010280   -0.261734   -0.182204
H    -0.641368   -1.733589   -0.143526   -0.533226   -0.176542   -0.230440
O    -0.879898   -0.136530    1.251432    0.070466   -0.208292   -0.100122
C    -0.369908    1.822538   -0.229909    0.086952   -0.236184   -0.138426
H     0.964837    0.040743    0.074754   -0.176200   -0.280912   -0.234066
H    -2.940561    0.329152   -0.428183   -0.033822    0.445264    0.194430
H    -3.174622   -1.387978   -0.063444   -0.490264    0.554782    0.374828
H    -2.546120   -0.903188   -1.642272   -0.634130    0.230318    0.209518
H     0.123824    2.437351    0.523257    0.636520   -0.322388   -0.431402
H     0.111251    1.993701   -1.192606   -0.405092   -0.351900   -0.403770
H    -1.420354    2.115250   -0.289095    0.118182   -0.025196    0.443472
Cl    2.456822   -0.366979   -0.122971    0.199538    0.178742    0.117188
14
* Frequency(6)   91.6500
C    -1.163283   -0.776298   -0.065460   -0.288862   -0.068194   -0.071418
C    -2.573040   -0.634511   -0.554163   -0.363816    0.309802    0.186006
C    -0.254841    0.350882    0.123740    0.010280   -0.261734   -0.182204
H    -0.701966   -1.753652   -0.169714   -0.533226   -0.176542   -0.230440
O    -0.871890   -0.160201    1.240054    0.070466   -0.208292   -0.100122
C    -0.360026    1.795697   -0.245640    0.086952   -0.236184   -0.138426
H     0.944813    0.008819    0.048154   -0.176200   -0.280912   -0.234066
H    -2.944405    0.379754   -0.406087   -0.033822    0.445264    0.194430
H    -3.230338   -1.324930   -0.020847   -0.490264    0.554782    0.374828
H    -2.618186   -0.877014   -1.618461   -0.634130    0.230318    0.209518
H     0.196161    2.400713    0.474230    0.636520   -0.322388   -0.431402
H     0.065214    1.953709   -1.238492   -0.405092   -0.351900   -0.403770
H    -1.406923    2.112387   -0.238697    0.118182   -0.025196    0.443472
Cl    2.479498   -0.346666   -0.109653    0.199538    0.178742    0.117188
14
* Frequency(6)   91.6500
C    -1.192553   -0.783208   -0.072697   -0.288862   -0.068194   -0.071418
C    -2.609905   -0.603118   -0.535315   -0.363816    0.309802    0.186006
C    -0.253799    0.324361    0.105278    0.010280   -0.261734   -0.182204
H    -0.755998   -1.771541   -0.193065   -0.533226   -0.176542   -0.230440
O    -0.864750   -0.181307    1.229908    0.070466   -0.208292   -0.100122
C    -0.351216    1.771764   -0.259667    0.086952   -0.236184   -0.138426
H     0.926959   -0.019646    0.024436   -0.176200   -0.280912   -0.234066
H    -2.947832    0.424872   -0.386386   -0.033822    0.445264    0.194430
H    -3.280016   -1.268714    0.017134   -0.490264    0.554782    0.374828
H    -2.682442   -0.853676   -1.597231   -0.634130    0.230318    0.209518
H     0.260660    2.368046    0.430517    0.636520   -0.322388   -0.431402
H     0.024167    1.918051   -1.279406   -0.405092   -0.351900   -0.403770
H    -1.394948    2.109834   -0.193760    0.118182   -0.025196    0.443472
Cl    2.499718   -0.328554   -0.097779    0.199538    0.178742    0.117188
14
* Frequency(6)   91.6500
C    -1.215094   -0.788529   -0.078270   -0.288862   -0.068194   -0.071418
C    -2.638295   -0.578943   -0.520801   -0.363816    0.309802    0.186006
C    -0.252997    0.303937    0.091060    0.010280   -0.261734   -0.182204
H    -0.797608   -1.785317   -0.211047   -0.533226   -0.176542   -0.230440
O    -0.859251   -0.197561    1.222095    0.070466   -0.208292   -0.100122
C    -0.344430    1.753334   -0.270469    0.086952   -0.236184   -0.138426
H     0.913209   -0.041567    0.006171   -0.176200   -0.280912   -0.234066
H    -2.950471    0.459618   -0.371213   -0.033822    0.445264    0.194430
H    -3.318273   -1.225422    0.046384   -0.490264    0.554782    0.374828
H    -2.731925   -0.835703   -1.580881   -0.634130    0.230318    0.209518
H     0.310330    2.342889    0.396853    0.636520   -0.322388   -0.431402
H    -0.007444    1.890591   -1.310914   -0.405092   -0.351900   -0.403770
H    -1.385726    2.107867   -0.159154    0.118182   -0.025196    0.443472
Cl    2.515288   -0.314606   -0.088634    0.199538    0.178742    0.117188
14
* Frequency(6)   91.6500
C    -1.228463   -0.791686   -0.081575   -0.288862   -0.068194   -0.071418
C    -2.655133   -0.564605   -0.512192   -0.363816    0.309802    0.186006
C    -0.252521    0.291823    0.082627    0.010280   -0.261734   -0.182204
H    -0.822286   -1.793488   -0.221712   -0.533226   -0.176542   -0.230440
O    -0.855990   -0.207201    1.217462    0.070466   -0.208292   -0.100122
C    -0.340406    1.742403   -0.276876    0.086952   -0.236184   -0.138426
H     0.905054   -0.054568   -0.004662   -0.176200   -0.280912   -0.234066
H    -2.952036    0.480226   -0.362215   -0.033822    0.445264    0.194430
H    -3.340964   -1.199746    0.063731   -0.490264    0.554782    0.374828
H    -2.761274   -0.825043   -1.571185   -0.634130    0.230318    0.209518
H     0.339789    2.327968    0.376887    0.636520   -0.322388   -0.431402
H    -0.026193    1.874305   -1.329601   -0.405092   -0.351900   -0.403770
H    -1.380256    2.106701   -0.138629    0.118182   -0.025196    0.443472
Cl    2.524523   -0.306334   -0.083210    0.199538    0.178742    0.117188
14
* Frequency(6)   91.6500
C    -1.231211   -0.792334   -0.082255   -0.288862   -0.068194   -0.071418
C    -2.658595   -0.561658   -0.510422   -0.363816    0.309802    0.186006
C    -0.252423    0.289333    0.080893    0.010280   -0.261734   -0.182204
H    -0.827360   -1.795168   -0.223905   -0.533226   -0.176542   -0.230440
O    -0.855319   -0.209183    1.216509    0.070466   -0.208292   -0.100122
C    -0.339579    1.740156   -0.278193    0.086952   -0.236184   -0.138426
H     0.903378   -0.057240   -0.006889   -0.176200   -0.280912   -0.234066
H    -2.952358    0.484462   -0.360365   -0.033822    0.445264    0.194430
H    -3.345628   -1.194468    0.067298   -0.490264    0.554782    0.374828
H    -2.767307   -0.822852   -1.569191   -0.634130    0.230318    0.209518
H     0.345845    2.324901    0.372782    0.636520   -0.322388   -0.431402
H    -0.030047    1.870957   -1.333443   -0.405092   -0.351900   -0.403770
H    -1.379132    2.106462   -0.134410    0.118182   -0.025196    0.443472
Cl    2.526422   -0.304633   -0.082095    0.199538    0.178742    0.117188
14
* Frequency(6)   91.6500
C    -1.223041   -0.790406   -0.080235   -0.288862   -0.068194   -0.071418
C    -2.648305   -0.570420   -0.515683   -0.363816    0.309802    0.186006
C    -0.252714    0.296736    0.086047    0.010280   -0.261734   -0.182204
H    -0.812278   -1.790174   -0.217387   -0.533226   -0.176542   -0.230440
O    -0.857312   -0.203292    1.219341    0.070466   -0.208292   -0.100122
C    -0.342038    1.746836   -0.274277    0.086952   -0.236184   -0.138426
H     0.908361   -0.049295   -0.000269   -0.176200   -0.280912   -0.234066
H    -2.951402    0.471868   -0.365864   -0.033822    0.445264    0.194430
H    -3.331762   -1.210159    0.056696   -0.490264    0.554782    0.374828
H    -2.749372   -0.829366   -1.575117   -0.634130    0.230318    0.209518
H     0.327842    2.334019    0.384984    0.636520   -0.322388   -0.431402
H    -0.018589    1.880910   -1.322023   -0.405092   -0.351900   -0.403770
H    -1.382474    2.107174   -0.146953    0.118182   -0.025196    0.443472
Cl    2.520778   -0.309688   -0.085410    0.199538    0.178742    0.117188
14
* Frequency(6)   91.6500
C    -1.204838   -0.786108   -0.075734   -0.288862   -0.068194   -0.071418
C    -2.625378   -0.589943   -0.527405   -0.363816    0.309802    0.186006
C    -0.253362    0.313230    0.097529    0.010280   -0.261734   -0.182204
H    -0.778675   -1.779049   -0.202865   -0.533226   -0.176542   -0.230440
O    -0.861753   -0.190166    1.225650    0.070466   -0.208292   -0.100122
C    -0.347518    1.761720   -0.265554    0.086952   -0.236184   -0.138426
H     0.919465   -0.031593    0.014481   -0.176200   -0.280912   -0.234066
H    -2.949270    0.443809   -0.378117   -0.033822    0.445264    0.194430
H    -3.300867   -1.245120    0.033075   -0.490264    0.554782    0.374828
H    -2.709411   -0.843880   -1.588320   -0.634130    0.230318    0.209518
H     0.287730    2.354335    0.412170    0.636520   -0.322388   -0.431402
H     0.006938    1.903086   -1.296578   -0.405092   -0.351900   -0.403770
H    -1.389922    2.108762   -0.174899    0.118182   -0.025196    0.443472
Cl    2.508204   -0.320952   -0.092795    0.199538    0.178742    0.117188
14
* Frequency(6)   91.6500
C    -1.178574   -0.779908   -0.069241   -0.288862   -0.068194   -0.071418
C    -2.592299   -0.618111   -0.544317   -0.363816    0.309802    0.186006
C    -0.254297    0.337027    0.114095    0.010280   -0.261734   -0.182204
H    -0.730194   -1.762998   -0.181913   -0.533226   -0.176542   -0.230440
O    -0.868160   -0.171228    1.234754    0.070466   -0.208292   -0.100122
C    -0.355423    1.783194   -0.252968    0.086952   -0.236184   -0.138426
H     0.935485   -0.006052    0.035763   -0.176200   -0.280912   -0.234066
H    -2.946195    0.403325   -0.395795   -0.033822    0.445264    0.194430
H    -3.256291   -1.295562   -0.001005   -0.490264    0.554782    0.374828
H    -2.651754   -0.864821   -1.607370   -0.634130    0.230318    0.209518
H     0.229857    2.383647    0.451393    0.636520   -0.322388   -0.431402
H     0.043770    1.935081   -1.259867   -0.405092   -0.351900   -0.403770
H    -1.400667    2.111053   -0.215221    0.118182   -0.025196    0.443472
Cl    2.490061   -0.337204   -0.103450    0.199538    0.178742    0.117188
14
* Frequency(6)   91.6500
C    -1.147096   -0.772477   -0.061458   -0.288862   -0.068194   -0.071418
C    -2.552653   -0.651871   -0.564587   -0.363816    0.309802    0.186006
C    -0.255417    0.365549    0.133951    0.010280   -0.261734   -0.182204
H    -0.672086   -1.743759   -0.156801   -0.533226   -0.176542   -0.230440
O    -0.875839   -0.148529    1.245664    0.070466   -0.208292   -0.100122
C    -0.364899    1.808932   -0.237883    0.086952   -0.236184   -0.138426
H     0.954686    0.024560    0.061270   -0.176200   -0.280912   -0.234066
H    -2.942509    0.354803   -0.416982   -0.033822    0.445264    0.194430
H    -3.202865   -1.356018   -0.041851   -0.490264    0.554782    0.374828
H    -2.582651   -0.889920   -1.630202   -0.634130    0.230318    0.209518
H     0.160493    2.418779    0.498405    0.636520   -0.322388   -0.431402
H     0.087914    1.973429   -1.215866   -0.405092   -0.351900   -0.403770
H    -1.413546    2.113799   -0.263547    0.118182   -0.025196    0.443472
Cl    2.468317   -0.356682   -0.116220    0.199538    0.178742    0.117188
14
* Frequency(6)   91.6500
C    -1.113814   -0.764619   -0.053230   -0.288862   -0.068194   -0.071418
C    -2.510735   -0.687565   -0.586017   -0.363816    0.309802    0.186006
C    -0.256601    0.395705    0.154943    0.010280   -0.261734   -0.182204
H    -0.610650   -1.723419   -0.130251   -0.533226   -0.176542   -0.230440
O    -0.883957   -0.124531    1.257200    0.070466   -0.208292   -0.100122
C    -0.374917    1.836144   -0.221935    0.086952   -0.236184   -0.138426
H     0.974988    0.056926    0.088238   -0.176200   -0.280912   -0.234066
H    -2.938613    0.303501   -0.439384   -0.033822    0.445264    0.194430
H    -3.146379   -1.419938   -0.085037   -0.490264    0.554782    0.374828
H    -2.509589   -0.916456   -1.654342   -0.634130    0.230318    0.209518
H     0.087155    2.455923    0.548109    0.636520   -0.322388   -0.431402
H     0.134588    2.013973   -1.169346   -0.405092   -0.351900   -0.403770
H    -1.427162    2.116701   -0.314643    0.118182   -0.025196    0.443472
Cl    2.445327   -0.377276   -0.129722    0.199538    0.178742    0.117188
14
* Frequency(6)   91.6500
C    -1.082336   -0.757188   -0.045447   -0.288862   -0.068194   -0.071418
C    -2.471089   -0.721325   -0.606287   -0.363816    0.309802    0.186006
C    -0.257721    0.424227    0.174799    0.010280   -0.261734   -0.182204
H    -0.552542   -1.704180   -0.105139   -0.533226   -0.176542   -0.230440
O    -0.891636   -0.101832    1.268110    0.070466   -0.208292   -0.100122
C    -0.384393    1.861882   -0.206850    0.086952   -0.236184   -0.138426
H     0.994189    0.087538    0.113745   -0.176200   -0.280912   -0.234066
H    -2.934927    0.254979   -0.460571   -0.033822    0.445264    0.194430
H    -3.092953   -1.480394   -0.125883   -0.490264    0.554782    0.374828
H    -2.440486   -0.941555   -1.677174   -0.634130    0.230318    0.209518
H     0.017791    2.491055    0.595121    0.636520   -0.322388   -0.431402
H     0.178732    2.052321   -1.125345   -0.405092   -0.351900   -0.403770
H    -1.440041    2.119447   -0.362969    0.118182   -0.025196    0.443472
Cl    2.423583   -0.396754   -0.142492    0.199538    0.178742    0.117188
14
* Frequency(6)   91.6500
C    -1.056072   -0.750988   -0.038954   -0.288862   -0.068194   -0.071418
C    -2.438010   -0.749493   -0.623199   -0.363816    0.309802    0.186006
C    -0.258656    0.448024    0.191365    0.010280   -0.261734   -0.182204
H    -0.504061   -1.688129   -0.084187   -0.533226   -0.176542   -0.230440
O    -0.898043   -0.082894    1.277214    0.070466   -0.208292   -0.100122
C    -0.392298    1.883356   -0.194264    0.086952   -0.236184   -0.138426
H     1.010209    0.113079    0.135027   -0.176200   -0.280912   -0.234066
H    -2.931852    0.214495   -0.478249   -0.033822    0.445264    0.194430
H    -3.048377   -1.530836   -0.159963   -0.490264    0.554782    0.374828
H    -2.382829   -0.962496   -1.696224   -0.634130    0.230318    0.209518
H    -0.040082    2.520367    0.634344    0.636520   -0.322388   -0.431402
H     0.215564    2.084316   -1.088634   -0.405092   -0.351900   -0.403770
H    -1.450786    2.121738   -0.403291    0.118182   -0.025196    0.443472
Cl    2.405440   -0.413006   -0.153147    0.199538    0.178742    0.117188
14
* Frequency(6)   91.6500
C    -1.037869   -0.746690   -0.034453   -0.288862   -0.068194   -0.071418
C    -2.415083   -0.769016   -0.634921   -0.363816    0.309802    0.186006
C    -0.259304    0.464518    0.202847    0.010280   -0.261734   -0.182204
H    -0.470458   -1.677004   -0.069665   -0.533226   -0.176542   -0.230440
O    -0.902484   -0.069768    1.283523    0.070466   -0.208292   -0.100122
C    -0.397778    1.898240   -0.185541    0.086952   -0.236184   -0.138426
H     1.021313    0.130781    0.149777   -0.176200   -0.280912   -0.234066
H    -2.929720    0.186436   -0.490502   -0.033822    0.445264    0.194430
H    -3.017482   -1.565797   -0.183584   -0.490264    0.554782    0.374828
H    -2.342868   -0.977010   -1.709427   -0.634130    0.230318    0.209518
H    -0.080194    2.540683    0.661530    0.636520   -0.322388   -0.431402
H     0.241091    2.106492   -1.063189   -0.405092   -0.351900   -0.403770
H    -1.458234    2.123326   -0.431237    0.118182   -0.025196    0.443472
Cl    2.392866   -0.424270   -0.160532    0.199538    0.178742    0.117188
14
* Frequency(6)   91.6500
C    -1.029699   -0.744762   -0.032433   -0.288862   -0.068194   -0.071418
C    -2.404793   -0.777778   -0.640182   -0.363816    0.309802    0.186006
C    -0.259595    0.471921    0.208001    0.010280   -0.261734   -0.182204
H    -0.455376   -1.672010   -0.063147   -0.533226   -0.176542   -0.230440
O    -0.904477   -0.063877    1.286355    0.070466   -0.208292   -0.100122
C    -0.400237    1.904920   -0.181625    0.086952   -0.236184   -0.138426
H     1.026296    0.138726    0.156397   -0.176200   -0.280912   -0.234066
H    -2.928764    0.173842   -0.496001   -0.033822    0.445264    0.194430
H    -3.003616   -1.581488   -0.194186   -0.490264    0.554782    0.374828
H    -2.324933   -0.983524   -1.715353   -0.634130    0.230318    0.209518
H    -0.098197    2.549801    0.673732    0.636520   -0.322388   -0.431402
H     0.252549    2.116445   -1.051769   -0.405092   -0.351900   -0.403770
H    -1.461576    2.124038   -0.443780    0.118182   -0.025196    0.443472
Cl    2.387222   -0.429325   -0.163847    0.199538    0.178742    0.117188
14
* Frequency(6)   91.6500
C    -1.032447   -0.745410   -0.033113   -0.288862   -0.068194   -0.071418
C    -2.408255   -0.774831   -0.638412   -0.363816    0.309802    0.186006
C    -0.259497    0.469431    0.206267    0.010280   -0.261734   -0.182204
H    -0.460450   -1.673690   -0.065340   -0.533226   -0.176542   -0.230440
O    -0.903806   -0.065859    1.285402    0.070466   -0.208292   -0.100122
C    -0.399410    1.902673   -0.182942    0.086952   -0.236184   -0.138426
H     1.024620    0.136054    0.154170   -0.176200   -0.280912   -0.234066
H    -2.929086    0.178078   -0.494151   -0.033822    0.445264    0.194430
H    -3.008280   -1.576210   -0.190619   -0.490264    0.554782    0.374828
H    -2.330966   -0.981333   -1.713359   -0.634130    0.230318    0.209518
H    -0.092141    2.546734    0.669627    0.636520   -0.322388   -0.431402
H     0.248695    2.113097   -1.055611   -0.405092   -0.351900   -0.403770
H    -1.460452    2.123799   -0.439561    0.118182   -0.025196    0.443472
Cl    2.389121   -0.427624   -0.162732    0.199538    0.178742    0.117188
14
* Frequency(6)   91.6500
C    -1.045816   -0.748567   -0.036418   -0.288862   -0.068194   -0.071418
C    -2.425093   -0.760493   -0.629803   -0.363816    0.309802    0.186006
C    -0.259021    0.457317    0.197834    0.010280   -0.261734   -0.182204
H    -0.485128   -1.681861   -0.076005   -0.533226   -0.176542   -0.230440
O    -0.900545   -0.075499    1.280769    0.070466   -0.208292   -0.100122
C    -0.395386    1.891742   -0.189349    0.086952   -0.236184   -0.138426
H     1.016465    0.123053    0.143337   -0.176200   -0.280912   -0.234066
H    -2.930651    0.198686   -0.485153   -0.033822    0.445264    0.194430
H    -3.030971   -1.550534   -0.173272   -0.490264    0.554782    0.374828
H    -2.360315   -0.970673   -1.703663   -0.634130    0.230318    0.209518
H    -0.062682    2.531813    0.649661    0.636520   -0.322388   -0.431402
H     0.229946    2.096811   -1.074298   -0.405092   -0.351900   -0.403770
H    -1.454982    2.122633   -0.419036    0.118182   -0.025196    0.443472
Cl    2.398356   -0.419352   -0.157308    0.199538    0.178742    0.117188
14
* Frequency(6)   91.6500
C    -1.068357   -0.753888   -0.041991   -0.288862   -0.068194   -0.071418
C    -2.453483   -0.736318   -0.615289   -0.363816    0.309802    0.186006
C    -0.258219    0.436893    0.183616    0.010280   -0.261734   -0.182204
H    -0.526738   -1.695637   -0.093987   -0.533226   -0.176542   -0.230440
O    -0.895046   -0.091753    1.272956    0.070466   -0.208292   -0.100122
C    -0.388600    1.873312   -0.200151    0.086952   -0.236184   -0.138426
H     1.002715    0.101132    0.125072   -0.176200   -0.280912   -0.234066
H    -2.933290    0.233432   -0.469980   -0.033822    0.445264    0.194430
H    -3.069228   -1.507242   -0.144022   -0.490264    0.554782    0.374828
H    -2.409798   -0.952700   -1.687313   -0.634130    0.230318    0.209518
H    -0.013012    2.506656    0.615997    0.636520   -0.322388   -0.431402
H     0.198335    2.069351   -1.105806   -0.405092   -0.351900   -0.403770
H    -1.445760    2.120666   -0.384430    0.118182   -0.025196    0.443472
Cl    2.413926   -0.405404   -0.148163    0.199538    0.178742    0.117188
14
* Frequency(6)   91.6500
C    -1.097627   -0.760798   -0.049228   -0.288862   -0.068194   -0.071418
C    -2.490348   -0.704925   -0.596441   -0.363816    0.309802    0.186006
C    -0.257177    0.410372    0.165154    0.010280   -0.261734   -0.182204
H    -0.580770   -1.713526   -0.117338   -0.533226   -0.176542   -0.230440
O    -0.887906   -0.112859    1.262810    0.070466   -0.208292   -0.100122
C    -0.379790    1.849379   -0.214178    0.086952   -0.236184   -0.138426
H     0.984861    0.072667    0.101354   -0.176200   -0.280912   -0.234066
H    -2.936717    0.278550   -0.450279   -0.033822    0.445264    0.194430
H    -3.118906   -1.451026   -0.106041   -0.490264    0.554782    0.374828
H    -2.474054   -0.929362   -1.666083   -0.634130    0.230318    0.209518
H     0.051487    2.473989    0.572284    0.636520   -0.322388   -0.431402
H     0.157288    2.033693   -1.146720   -0.405092   -0.351900   -0.403770
H    -1.433785    2.118113   -0.339493    0.118182   -0.025196    0.443472
Cl    2.434146   -0.387292   -0.136289    0.199538    0.178742    0.117188
14
* Frequency(6)   91.6500
C    -1.130455   -0.768548   -0.057344   -0.288862   -0.068194   -0.071418
C    -2.531694   -0.669718   -0.575302   -0.363816    0.309802    0.186006
C    -0.256009    0.380627    0.144447    0.010280   -0.261734   -0.182204
H    -0.641368   -1.733589   -0.143526   -0.533226   -0.176542   -0.230440
O    -0.879898   -0.136530    1.251432    0.070466   -0.208292   -0.100122
C    -0.369908    1.822538   -0.229909    0.086952   -0.236184   -0.138426
H     0.964837    0.040743    0.074754   -0.176200   -0.280912   -0.234066
H    -2.940561    0.329152   -0.428183   -0.033822    0.445264    0.194430
H    -3.174622   -1.387978   -0.063444   -0.490264    0.554782    0.374828
H    -2.546120   -0.903188   -1.642272   -0.634130    0.230318    0.209518
H     0.123824    2.437351    0.523257    0.636520   -0.322388   -0.431402
H     0.111251    1.993701   -1.192606   -0.405092   -0.351900   -0.403770
H    -1.420354    2.115250   -0.289095    0.118182   -0.025196    0.443472
Cl    2.456822   -0.366979   -0.122971    0.199538    0.178742    0.117188
