14
Coordinates from ORCA-job opt E -691.913317611862
  C      -1.130313     -0.766257     -0.051907
  C      -2.526345     -0.665113     -0.575943
  C      -0.245485      0.377083      0.148752
  H      -0.645929     -1.731255     -0.133687
  O      -0.883508     -0.132882      1.258185
  C      -0.372822      1.817002     -0.229116
  H       0.927434      0.048757      0.091262
  H      -2.935492      0.330951     -0.430158
  H      -3.172481     -1.381434     -0.070446
  H      -2.536989     -0.896518     -1.640995
  H       0.105704      2.438406      0.525034
  H       0.116884      1.991335     -1.184214
  H      -1.422016      2.100025     -0.300315
  Cl      2.487102     -0.377265     -0.157216
14
Coordinates from ORCA-job opt E -691.913389419494
  C      -1.128612     -0.767978     -0.050910
  C      -2.525635     -0.662911     -0.576149
  C      -0.243101      0.375164      0.148691
  H      -0.644840     -1.735958     -0.133282
  O      -0.880147     -0.137073      1.257618
  C      -0.373551      1.815844     -0.229915
  H       0.929067      0.048773      0.091690
  H      -2.932260      0.336928     -0.430581
  H      -3.174678     -1.378468     -0.068481
  H      -2.536647     -0.895770     -1.643302
  H       0.105999      2.438989      0.525503
  H       0.115055      1.991349     -1.188228
  H      -1.425848      2.096827     -0.299263
  Cl      2.480940     -0.372881     -0.154155
14
Coordinates from ORCA-job opt E -691.913405313074
  C      -1.128039     -0.769006     -0.050390
  C      -2.525585     -0.661109     -0.576201
  C      -0.241789      0.373906      0.148088
  H      -0.645356     -1.737952     -0.134150
  O      -0.878355     -0.140121      1.256562
  C      -0.374697      1.814864     -0.230745
  H       0.932961      0.048411      0.091931
  H      -2.929799      0.340120     -0.430586
  H      -3.175915     -1.375381     -0.067506
  H      -2.536954     -0.894435     -1.643626
  H       0.105603      2.438606      0.524314
  H       0.111686      1.990867     -1.190539
  H      -1.428022      2.093975     -0.297853
  Cl      2.480005     -0.369912     -0.150064
14
Coordinates from ORCA-job opt E -691.913417004910
  C      -1.127969     -0.769802     -0.050157
  C      -2.525941     -0.659747     -0.576249
  C      -0.240996      0.372982      0.146928
  H      -0.646540     -1.739193     -0.136036
  O      -0.877343     -0.142629      1.254903
  C      -0.375649      1.814142     -0.231496
  H       0.938678      0.047832      0.091719
  H      -2.927927      0.342221     -0.430496
  H      -3.176861     -1.372662     -0.066464
  H      -2.537704     -0.893460     -1.643439
  H       0.106309      2.437924      0.522411
  H       0.107379      1.990274     -1.192842
  H      -1.429462      2.091788     -0.295243
  Cl      2.479770     -0.366835     -0.144305
14
Coordinates from ORCA-job opt E -691.913428444496
  C      -1.128309     -0.769914     -0.050347
  C      -2.526464     -0.659832     -0.576296
  C      -0.241358      0.373032      0.145985
  H      -0.647367     -1.739225     -0.137635
  O      -0.877446     -0.142931      1.253838
  C      -0.375577      1.814220     -0.231612
  H       0.942602      0.047405      0.090835
  H      -2.928095      0.342016     -0.430411
  H      -3.177008     -1.372436     -0.066022
  H      -2.538382     -0.893677     -1.643168
  H       0.108355      2.437476      0.521117
  H       0.105065      1.989936     -1.193936
  H      -1.429296      2.092053     -0.292830
  Cl      2.479024     -0.365287     -0.140282
14
Coordinates from ORCA-job opt E -691.913432777137
  C      -1.128965     -0.769658     -0.050910
  C      -2.527281     -0.661114     -0.576451
  C      -0.243028      0.373873      0.144927
  H      -0.647970     -1.738571     -0.139483
  O      -0.878305     -0.141888      1.252827
  C      -0.374660      1.815120     -0.231302
  H       0.947443      0.046621      0.088619
  H      -2.929898      0.340078     -0.430528
  H      -3.176641     -1.374116     -0.065766
  H      -2.539194     -0.895146     -1.642972
  H       0.112909      2.437104      0.519680
  H       0.102939      1.989884     -1.195001
  H      -1.427909      2.094814     -0.288979
  Cl      2.476304     -0.364165     -0.135424
14
Coordinates from ORCA-job opt E -691.913444495660
  C      -1.129802     -0.769046     -0.052051
  C      -2.528424     -0.663864     -0.576746
  C      -0.246348      0.375734      0.143999
  H      -0.647828     -1.737257     -0.141095
  O      -0.879599     -0.139481      1.252032
  C      -0.372840      1.817233     -0.230470
  H       0.953018      0.045276      0.084661
  H      -2.933447      0.336308     -0.431287
  H      -3.175859     -1.378018     -0.065525
  H      -2.540240     -0.898542     -1.642960
  H       0.120017      2.436918      0.518643
  H       0.101574      1.990625     -1.195792
  H      -1.425239      2.100955     -0.284023
  Cl      2.470761     -0.364004     -0.130150
14
Coordinates from ORCA-job opt E -691.913454130397
  C      -1.130360     -0.768415     -0.053693
  C      -2.529594     -0.666736     -0.576738
  C      -0.250108      0.377832      0.143762
  H      -0.646559     -1.735806     -0.141947
  O      -0.880584     -0.137225      1.251703
  C      -0.371057      1.819604     -0.229708
  H       0.957478      0.043777      0.080509
  H      -2.937275      0.332544     -0.431489
  H      -3.175032     -1.382586     -0.065173
  H      -2.541651     -0.901749     -1.642979
  H       0.125314      2.437015      0.519039
  H       0.102773      1.991857     -1.195594
  H      -1.422632      2.107635     -0.281903
  Cl      2.465031     -0.364910     -0.126553
14
Coordinates from ORCA-job opt E -691.913461110961
  C      -1.130602     -0.768110     -0.055435
  C      -2.530706     -0.669153     -0.576427
  C      -0.253917      0.379796      0.144176
  H      -0.644181     -1.734420     -0.142304
  O      -0.880790     -0.135748      1.251838
  C      -0.369833      1.821751     -0.229262
  H       0.961471      0.042117      0.076508
  H      -2.940231      0.329615     -0.431145
  H      -3.174604     -1.386561     -0.064713
  H      -2.543317     -0.904115     -1.642933
  H       0.127882      2.437150      0.520563
  H       0.105768      1.993067     -1.194635
  H      -1.420626      2.113678     -0.282659
  Cl      2.459431     -0.366232     -0.124337
14
Coordinates from ORCA-job opt E -691.913463245227
  C      -1.130576     -0.768215     -0.056654
  C      -2.531369     -0.669908     -0.575877
  C      -0.255612      0.380580      0.144377
  H      -0.642424     -1.733755     -0.142891
  O      -0.880432     -0.135781      1.251656
  C      -0.369606      1.822545     -0.229490
  H       0.963683      0.041193      0.074929
  H      -2.941052      0.328765     -0.429741
  H      -3.174473     -1.388102     -0.064128
  H      -2.544852     -0.904126     -1.642674
  H       0.126889      2.437204      0.521918
  H       0.108577      1.993578     -1.193699
  H      -1.420082      2.115708     -0.285388
  Cl      2.457073     -0.366852     -0.123102
14
Coordinates from ORCA-job opt E -691.913459715399
  C      -1.130455     -0.768548     -0.057344
  C      -2.531694     -0.669718     -0.575302
  C      -0.256009      0.380627      0.144447
  H      -0.641368     -1.733589     -0.143526
  O      -0.879898     -0.136530      1.251432
  C      -0.369908      1.822538     -0.229909
  H       0.964837      0.040743      0.074754
  H      -2.940561      0.329152     -0.428183
  H      -3.174622     -1.387978     -0.063444
  H      -2.546120     -0.903188     -1.642272
  H       0.123824      2.437351      0.523257
  H       0.111251      1.993701     -1.192606
  H      -1.420354      2.115250     -0.289095
  Cl      2.456822     -0.366979     -0.122971
