14
* (null), Energy   -1000.0000000
C    -0.222788   -0.996964    0.171617   -0.036975    0.056509    0.101529
C    -1.623994   -0.969105   -0.354841    0.024228    0.129656   -0.039234
C     0.604320    0.191357    0.339112    0.277800   -0.061320   -0.025827
H     0.303458   -1.944753    0.121831   -0.135162   -0.002764    0.097980
O    -0.004286   -0.309772    1.459755   -0.050644   -0.027988   -0.002088
C     0.447331    1.614488   -0.085061   -0.235690   -0.051394   -0.025285
H     1.857643   -0.112574    0.284403   -1.698192    0.447124    0.361992
H    -2.070343    0.018235   -0.243410    0.040667    0.144785   -0.119916
H    -2.242300   -1.693160    0.178582   -0.035507    0.191930   -0.022102
H    -1.623910   -1.238725   -1.413267    0.071989    0.049724   -0.017889
H     0.905000    2.271020    0.655433   -0.373458    0.061065   -0.036808
H     0.939179    1.770851   -1.044697   -0.305752    0.115693   -0.039762
H    -0.611743    1.867237   -0.171876   -0.297347   -0.378053    0.050877
Cl    3.342433   -0.468134    0.102419    0.090605   -0.030152   -0.010647
14
* Frequency(6) -189.9023
C    -0.226990   -0.990542    0.183156   -0.036975    0.056509    0.101529
C    -1.621241   -0.954370   -0.359300    0.024228    0.129656   -0.039234
C     0.635890    0.184389    0.336176    0.277800   -0.061320   -0.025827
H     0.288097   -1.945067    0.132966   -0.135162   -0.002764    0.097980
O    -0.010041   -0.312953    1.459518   -0.050644   -0.027988   -0.002088
C     0.420546    1.608647   -0.087935   -0.235690   -0.051394   -0.025285
H     1.664652   -0.061761    0.325542   -1.698192    0.447124    0.361992
H    -2.065722    0.034689   -0.257038    0.040667    0.144785   -0.119916
H    -2.246335   -1.671349    0.176070   -0.035507    0.191930   -0.022102
H    -1.615728   -1.233075   -1.415300    0.071989    0.049724   -0.017889
H     0.862558    2.277959    0.651250   -0.373458    0.061065   -0.036808
H     0.904432    1.783999   -1.049216   -0.305752    0.115693   -0.039762
H    -0.645534    1.824274   -0.166094   -0.297347   -0.378053    0.050877
Cl    3.352730   -0.471561    0.101209    0.090605   -0.030152   -0.010647
14
* Frequency(6) -189.9023
C    -0.230737   -0.984816    0.193444   -0.036975    0.056509    0.101529
C    -1.618786   -0.941232   -0.363276    0.024228    0.129656   -0.039234
C     0.664040    0.178175    0.333559    0.277800   -0.061320   -0.025827
H     0.274401   -1.945348    0.142895   -0.135162   -0.002764    0.097980
O    -0.015173   -0.315789    1.459307   -0.050644   -0.027988   -0.002088
C     0.396664    1.603440   -0.090497   -0.235690   -0.051394   -0.025285
H     1.492575   -0.016454    0.362222   -1.698192    0.447124    0.361992
H    -2.061601    0.049360   -0.269189    0.040667    0.144785   -0.119916
H    -2.249933   -1.651900    0.173830   -0.035507    0.191930   -0.022102
H    -1.608434   -1.228036   -1.417113    0.071989    0.049724   -0.017889
H     0.824716    2.284147    0.647520   -0.373458    0.061065   -0.036808
H     0.873450    1.795722   -1.053245   -0.305752    0.115693   -0.039762
H    -0.675664    1.785966   -0.160939   -0.297347   -0.378053    0.050877
Cl    3.361911   -0.474616    0.100130    0.090605   -0.030152   -0.010647
14
* Frequency(6) -189.9023
C    -0.233622   -0.980406    0.201366   -0.036975    0.056509    0.101529
C    -1.616895   -0.931114   -0.366337    0.024228    0.129656   -0.039234
C     0.685717    0.173390    0.331544    0.277800   -0.061320   -0.025827
H     0.263854   -1.945563    0.150541   -0.135162   -0.002764    0.097980
O    -0.019125   -0.317973    1.459144   -0.050644   -0.027988   -0.002088
C     0.378272    1.599429   -0.092470   -0.235690   -0.051394   -0.025285
H     1.360059    0.018437    0.390470   -1.698192    0.447124    0.361992
H    -2.058428    0.060658   -0.278546    0.040667    0.144785   -0.119916
H    -2.252704   -1.636923    0.172106   -0.035507    0.191930   -0.022102
H    -1.602816   -1.224156   -1.418508    0.071989    0.049724   -0.017889
H     0.795573    2.288912    0.644648   -0.373458    0.061065   -0.036808
H     0.849591    1.804750   -1.056348   -0.305752    0.115693   -0.039762
H    -0.698868    1.756465   -0.156969   -0.297347   -0.378053    0.050877
Cl    3.368981   -0.476969    0.099299    0.090605   -0.030152   -0.010647
14
* Frequency(6) -189.9023
C    -0.235334   -0.977791    0.206065   -0.036975    0.056509    0.101529
C    -1.615774   -0.925114   -0.368153    0.024228    0.129656   -0.039234
C     0.698574    0.170552    0.330349    0.277800   -0.061320   -0.025827
H     0.257599   -1.945691    0.155075   -0.135162   -0.002764    0.097980
O    -0.021469   -0.319268    1.459047   -0.050644   -0.027988   -0.002088
C     0.367364    1.597050   -0.093640   -0.235690   -0.051394   -0.025285
H     1.281463    0.039131    0.407224   -1.698192    0.447124    0.361992
H    -2.056546    0.067359   -0.284096    0.040667    0.144785   -0.119916
H    -2.254347   -1.628041    0.171083   -0.035507    0.191930   -0.022102
H    -1.599484   -1.221855   -1.419336    0.071989    0.049724   -0.017889
H     0.778289    2.291738    0.642944   -0.373458    0.061065   -0.036808
H     0.835441    1.810104   -1.058188   -0.305752    0.115693   -0.039762
H    -0.712629    1.738968   -0.154614   -0.297347   -0.378053    0.050877
Cl    3.373174   -0.478364    0.098806    0.090605   -0.030152   -0.010647
14
* Frequency(6) -189.9023
C    -0.235686   -0.977253    0.207031   -0.036975    0.056509    0.101529
C    -1.615543   -0.923880   -0.368526    0.024228    0.129656   -0.039234
C     0.701217    0.169969    0.330103    0.277800   -0.061320   -0.025827
H     0.256313   -1.945718    0.156007   -0.135162   -0.002764    0.097980
O    -0.021951   -0.319534    1.459027   -0.050644   -0.027988   -0.002088
C     0.365121    1.596562   -0.093880   -0.235690   -0.051394   -0.025285
H     1.265306    0.043385    0.410668   -1.698192    0.447124    0.361992
H    -2.056159    0.068736   -0.285237    0.040667    0.144785   -0.119916
H    -2.254685   -1.626214    0.170872   -0.035507    0.191930   -0.022102
H    -1.598800   -1.221382   -1.419507    0.071989    0.049724   -0.017889
H     0.774736    2.292319    0.642594   -0.373458    0.061065   -0.036808
H     0.832531    1.811205   -1.058566   -0.305752    0.115693   -0.039762
H    -0.715458    1.735371   -0.154130   -0.297347   -0.378053    0.050877
Cl    3.374036   -0.478651    0.098705    0.090605   -0.030152   -0.010647
14
* Frequency(6) -189.9023
C    -0.234640   -0.978852    0.204160   -0.036975    0.056509    0.101529
C    -1.616228   -0.927547   -0.367417    0.024228    0.129656   -0.039234
C     0.693360    0.171703    0.330834    0.277800   -0.061320   -0.025827
H     0.260136   -1.945639    0.153236   -0.135162   -0.002764    0.097980
O    -0.020518   -0.318743    1.459086   -0.050644   -0.027988   -0.002088
C     0.371788    1.598015   -0.093165   -0.235690   -0.051394   -0.025285
H     1.313337    0.030738    0.400429   -1.698192    0.447124    0.361992
H    -2.057309    0.064641   -0.281845    0.040667    0.144785   -0.119916
H    -2.253681   -1.631643    0.171498   -0.035507    0.191930   -0.022102
H    -1.600836   -1.222788   -1.419001    0.071989    0.049724   -0.017889
H     0.785299    2.290592    0.643635   -0.373458    0.061065   -0.036808
H     0.841179    1.807933   -1.057442   -0.305752    0.115693   -0.039762
H    -0.707048    1.746064   -0.155569   -0.297347   -0.378053    0.050877
Cl    3.371474   -0.477798    0.099006    0.090605   -0.030152   -0.010647
14
* Frequency(6) -189.9023
C    -0.232310   -0.982413    0.197762   -0.036975    0.056509    0.101529
C    -1.617755   -0.935718   -0.364944    0.024228    0.129656   -0.039234
C     0.675854    0.175567    0.332461    0.277800   -0.061320   -0.025827
H     0.268653   -1.945465    0.147062   -0.135162   -0.002764    0.097980
O    -0.017327   -0.316979    1.459218   -0.050644   -0.027988   -0.002088
C     0.386640    1.601254   -0.091572   -0.235690   -0.051394   -0.025285
H     1.420353    0.002562    0.377618   -1.698192    0.447124    0.361992
H    -2.059871    0.055517   -0.274289    0.040667    0.144785   -0.119916
H    -2.251443   -1.643738    0.172890   -0.035507    0.191930   -0.022102
H    -1.605372   -1.225921   -1.417873    0.071989    0.049724   -0.017889
H     0.808833    2.286744    0.645955   -0.373458    0.061065   -0.036808
H     0.860447    1.800642   -1.054936   -0.305752    0.115693   -0.039762
H    -0.688310    1.769887   -0.158775   -0.297347   -0.378053    0.050877
Cl    3.365764   -0.475898    0.099677    0.090605   -0.030152   -0.010647
14
* Frequency(6) -189.9023
C    -0.228948   -0.987551    0.188530   -0.036975    0.056509    0.101529
C    -1.619958   -0.947506   -0.361377    0.024228    0.129656   -0.039234
C     0.650596    0.181143    0.334809    0.277800   -0.061320   -0.025827
H     0.280942   -1.945214    0.138153   -0.135162   -0.002764    0.097980
O    -0.012722   -0.314434    1.459408   -0.050644   -0.027988   -0.002088
C     0.408070    1.605927   -0.089273   -0.235690   -0.051394   -0.025285
H     1.574755   -0.038092    0.344705   -1.698192    0.447124    0.361992
H    -2.063569    0.042353   -0.263386    0.040667    0.144785   -0.119916
H    -2.248215   -1.661188    0.174900   -0.035507    0.191930   -0.022102
H    -1.611918   -1.230442   -1.416247    0.071989    0.049724   -0.017889
H     0.842788    2.281192    0.649301   -0.373458    0.061065   -0.036808
H     0.888246    1.790123   -1.051321   -0.305752    0.115693   -0.039762
H    -0.661275    1.804261   -0.163401   -0.297347   -0.378053    0.050877
Cl    3.357526   -0.473157    0.100645    0.090605   -0.030152   -0.010647
14
* Frequency(6) -189.9023
C    -0.224919   -0.993709    0.177466   -0.036975    0.056509    0.101529
C    -1.622598   -0.961635   -0.357102    0.024228    0.129656   -0.039234
C     0.620323    0.187825    0.337624    0.277800   -0.061320   -0.025827
H     0.295671   -1.944913    0.127476   -0.135162   -0.002764    0.097980
O    -0.007203   -0.311384    1.459635   -0.050644   -0.027988   -0.002088
C     0.433754    1.611527   -0.086518   -0.235690   -0.051394   -0.025285
H     1.759813   -0.086816    0.305257   -1.698192    0.447124    0.361992
H    -2.068001    0.026575   -0.250318    0.040667    0.144785   -0.119916
H    -2.244345   -1.682104    0.177309   -0.035507    0.191930   -0.022102
H    -1.619762   -1.235861   -1.414297    0.071989    0.049724   -0.017889
H     0.883486    2.274538    0.653312   -0.373458    0.061065   -0.036808
H     0.921565    1.777516   -1.046988   -0.305752    0.115693   -0.039762
H    -0.628872    1.845458   -0.168945   -0.297347   -0.378053    0.050877
Cl    3.347652   -0.469871    0.101805    0.090605   -0.030152   -0.010647
14
* Frequency(6) -189.9023
C    -0.220658   -1.000219    0.165769   -0.036975    0.056509    0.101529
C    -1.625390   -0.976574   -0.352581    0.024228    0.129656   -0.039234
C     0.588316    0.194890    0.340599    0.277800   -0.061320   -0.025827
H     0.311244   -1.944594    0.116187   -0.135162   -0.002764    0.097980
O    -0.001368   -0.308160    1.459876   -0.050644   -0.027988   -0.002088
C     0.460909    1.617449   -0.083604   -0.235690   -0.051394   -0.025285
H     1.955472   -0.138332    0.263550   -1.698192    0.447124    0.361992
H    -2.072686    0.009894   -0.236502    0.040667    0.144785   -0.119916
H    -2.240255   -1.704217    0.179855   -0.035507    0.191930   -0.022102
H    -1.628057   -1.241590   -1.412236    0.071989    0.049724   -0.017889
H     0.926514    2.267502    0.657553   -0.373458    0.061065   -0.036808
H     0.956793    1.764186   -1.042407   -0.305752    0.115693   -0.039762
H    -0.594613    1.889016   -0.174807   -0.297347   -0.378053    0.050877
Cl    3.337213   -0.466397    0.103032    0.090605   -0.030152   -0.010647
14
* Frequency(6) -189.9023
C    -0.216629   -1.006377    0.154705   -0.036975    0.056509    0.101529
C    -1.628030   -0.990703   -0.348306    0.024228    0.129656   -0.039234
C     0.558043    0.201572    0.343414    0.277800   -0.061320   -0.025827
H     0.325973   -1.944293    0.105510   -0.135162   -0.002764    0.097980
O     0.004151   -0.305110    1.460103   -0.050644   -0.027988   -0.002088
C     0.486593    1.623049   -0.080849   -0.235690   -0.051394   -0.025285
H     2.140530   -0.187057    0.224102   -1.698192    0.447124    0.361992
H    -2.077118   -0.005884   -0.223434    0.040667    0.144785   -0.119916
H    -2.236385   -1.725132    0.182264   -0.035507    0.191930   -0.022102
H    -1.635902   -1.247008   -1.410287    0.071989    0.049724   -0.017889
H     0.967211    2.260847    0.661564   -0.373458    0.061065   -0.036808
H     0.990112    1.751579   -1.038074   -0.305752    0.115693   -0.039762
H    -0.562210    1.930214   -0.180351   -0.297347   -0.378053    0.050877
Cl    3.327340   -0.463111    0.104192    0.090605   -0.030152   -0.010647
14
* Frequency(6) -189.9023
C    -0.213267   -1.011515    0.145473   -0.036975    0.056509    0.101529
C    -1.630233   -1.002492   -0.344738    0.024228    0.129656   -0.039234
C     0.532785    0.207147    0.345762    0.277800   -0.061320   -0.025827
H     0.338263   -1.944041    0.096601   -0.135162   -0.002764    0.097980
O     0.008755   -0.302565    1.460293   -0.050644   -0.027988   -0.002088
C     0.508022    1.627722   -0.078550   -0.235690   -0.051394   -0.025285
H     2.294933   -0.227710    0.191189   -1.698192    0.447124    0.361992
H    -2.080815   -0.019048   -0.212531    0.040667    0.144785   -0.119916
H    -2.233157   -1.742583    0.184273   -0.035507    0.191930   -0.022102
H    -1.642447   -1.251529   -1.408661    0.071989    0.049724   -0.017889
H     1.001167    2.255295    0.664911   -0.373458    0.061065   -0.036808
H     1.017911    1.741060   -1.034459   -0.305752    0.115693   -0.039762
H    -0.535175    1.964587   -0.184977   -0.297347   -0.378053    0.050877
Cl    3.319102   -0.460370    0.105160    0.090605   -0.030152   -0.010647
14
* Frequency(6) -189.9023
C    -0.210937   -1.015076    0.139075   -0.036975    0.056509    0.101529
C    -1.631759   -1.010662   -0.342266    0.024228    0.129656   -0.039234
C     0.515279    0.211012    0.347390    0.277800   -0.061320   -0.025827
H     0.346780   -1.943867    0.090427   -0.135162   -0.002764    0.097980
O     0.011947   -0.300801    1.460425   -0.050644   -0.027988   -0.002088
C     0.522875    1.630961   -0.076957   -0.235690   -0.051394   -0.025285
H     2.401948   -0.255887    0.168378   -1.698192    0.447124    0.361992
H    -2.083378   -0.028172   -0.204974    0.040667    0.144785   -0.119916
H    -2.230919   -1.754678    0.185666   -0.035507    0.191930   -0.022102
H    -1.646983   -1.254663   -1.407533    0.071989    0.049724   -0.017889
H     1.024701    2.251447    0.667231   -0.373458    0.061065   -0.036808
H     1.037179    1.733769   -1.031953   -0.305752    0.115693   -0.039762
H    -0.516437    1.988411   -0.188183   -0.297347   -0.378053    0.050877
Cl    3.313392   -0.458470    0.105831    0.090605   -0.030152   -0.010647
14
* Frequency(6) -189.9023
C    -0.209891   -1.016675    0.136204   -0.036975    0.056509    0.101529
C    -1.632445   -1.014329   -0.341156    0.024228    0.129656   -0.039234
C     0.507422    0.212746    0.348120    0.277800   -0.061320   -0.025827
H     0.350603   -1.943789    0.087655   -0.135162   -0.002764    0.097980
O     0.013379   -0.300009    1.460484   -0.050644   -0.027988   -0.002088
C     0.529541    1.632415   -0.076242   -0.235690   -0.051394   -0.025285
H     2.449980   -0.268533    0.158139   -1.698192    0.447124    0.361992
H    -2.084528   -0.032267   -0.201583    0.040667    0.144785   -0.119916
H    -2.229915   -1.760106    0.186291   -0.035507    0.191930   -0.022102
H    -1.649020   -1.256069   -1.407027    0.071989    0.049724   -0.017889
H     1.035264    2.249720    0.668272   -0.373458    0.061065   -0.036808
H     1.045827    1.730497   -1.030828   -0.305752    0.115693   -0.039762
H    -0.508027    1.999104   -0.189622   -0.297347   -0.378053    0.050877
Cl    3.310829   -0.457617    0.106133    0.090605   -0.030152   -0.010647
14
* Frequency(6) -189.9023
C    -0.210243   -1.016137    0.137170   -0.036975    0.056509    0.101529
C    -1.632214   -1.013096   -0.341530    0.024228    0.129656   -0.039234
C     0.510065    0.212163    0.347874    0.277800   -0.061320   -0.025827
H     0.349317   -1.943815    0.088588   -0.135162   -0.002764    0.097980
O     0.012897   -0.300276    1.460464   -0.050644   -0.027988   -0.002088
C     0.527299    1.631926   -0.076482   -0.235690   -0.051394   -0.025285
H     2.433822   -0.264279    0.161583   -1.698192    0.447124    0.361992
H    -2.084141   -0.030889   -0.202724    0.040667    0.144785   -0.119916
H    -2.230253   -1.758280    0.186081   -0.035507    0.191930   -0.022102
H    -1.648335   -1.255596   -1.407197    0.071989    0.049724   -0.017889
H     1.031711    2.250301    0.667921   -0.373458    0.061065   -0.036808
H     1.042917    1.731598   -1.031207   -0.305752    0.115693   -0.039762
H    -0.510856    1.995507   -0.189138   -0.297347   -0.378053    0.050877
Cl    3.311691   -0.457904    0.106031    0.090605   -0.030152   -0.010647
14
* Frequency(6) -189.9023
C    -0.211954   -1.013522    0.141869   -0.036975    0.056509    0.101529
C    -1.631093   -1.007095   -0.343345    0.024228    0.129656   -0.039234
C     0.522922    0.209325    0.346679    0.277800   -0.061320   -0.025827
H     0.343062   -1.943943    0.093122   -0.135162   -0.002764    0.097980
O     0.010554   -0.301571    1.460367   -0.050644   -0.027988   -0.002088
C     0.516391    1.629547   -0.077652   -0.235690   -0.051394   -0.025285
H     2.355227   -0.243585    0.178337   -1.698192    0.447124    0.361992
H    -2.082259   -0.024189   -0.208274    0.040667    0.144785   -0.119916
H    -2.231896   -1.749397    0.185058   -0.035507    0.191930   -0.022102
H    -1.645003   -1.253295   -1.408025    0.071989    0.049724   -0.017889
H     1.014426    2.253127    0.666218   -0.373458    0.061065   -0.036808
H     1.028767    1.736952   -1.033047   -0.305752    0.115693   -0.039762
H    -0.524617    1.978010   -0.186784   -0.297347   -0.378053    0.050877
Cl    3.315885   -0.459299    0.105538    0.090605   -0.030152   -0.010647
14
* Frequency(6) -189.9023
C    -0.214840   -1.009112    0.149791   -0.036975    0.056509    0.101529
C    -1.629202   -0.996977   -0.346407    0.024228    0.129656   -0.039234
C     0.544600    0.204539    0.344664    0.277800   -0.061320   -0.025827
H     0.332514   -1.944159    0.100768   -0.135162   -0.002764    0.097980
O     0.006602   -0.303755    1.460204   -0.050644   -0.027988   -0.002088
C     0.497999    1.625536   -0.079626   -0.235690   -0.051394   -0.025285
H     2.222711   -0.208694    0.206584   -1.698192    0.447124    0.361992
H    -2.079086   -0.012890   -0.217631    0.040667    0.144785   -0.119916
H    -2.234667   -1.734420    0.183333   -0.035507    0.191930   -0.022102
H    -1.639385   -1.249415   -1.409421    0.071989    0.049724   -0.017889
H     0.985284    2.257892    0.663346   -0.373458    0.061065   -0.036808
H     1.004908    1.745980   -1.036150   -0.305752    0.115693   -0.039762
H    -0.547821    1.948509   -0.182813   -0.297347   -0.378053    0.050877
Cl    3.322955   -0.461652    0.104708    0.090605   -0.030152   -0.010647
14
* Frequency(6) -189.9023
C    -0.218586   -1.003386    0.160079   -0.036975    0.056509    0.101529
C    -1.626747   -0.983839   -0.350383    0.024228    0.129656   -0.039234
C     0.572749    0.198326    0.342047    0.277800   -0.061320   -0.025827
H     0.318818   -1.944439    0.110697   -0.135162   -0.002764    0.097980
O     0.001470   -0.306591    1.459993   -0.050644   -0.027988   -0.002088
C     0.474116    1.620329   -0.082188   -0.235690   -0.051394   -0.025285
H     2.050634   -0.163388    0.243265   -1.698192    0.447124    0.361992
H    -2.074965    0.001780   -0.229782    0.040667    0.144785   -0.119916
H    -2.238265   -1.714972    0.181094   -0.035507    0.191930   -0.022102
H    -1.632091   -1.244376   -1.411234    0.071989    0.049724   -0.017889
H     0.947441    2.264080    0.659616   -0.373458    0.061065   -0.036808
H     0.973926    1.757703   -1.040179   -0.305752    0.115693   -0.039762
H    -0.577951    1.910201   -0.177658   -0.297347   -0.378053    0.050877
Cl    3.332136   -0.464708    0.103629    0.090605   -0.030152   -0.010647
14
* Frequency(6) -189.9023
C    -0.222788   -0.996964    0.171617   -0.036975    0.056509    0.101529
C    -1.623994   -0.969105   -0.354841    0.024228    0.129656   -0.039234
C     0.604320    0.191357    0.339112    0.277800   -0.061320   -0.025827
H     0.303458   -1.944753    0.121831   -0.135162   -0.002764    0.097980
O    -0.004286   -0.309772    1.459755   -0.050644   -0.027988   -0.002088
C     0.447331    1.614488   -0.085061   -0.235690   -0.051394   -0.025285
H     1.857643   -0.112574    0.284403   -1.698192    0.447124    0.361992
H    -2.070343    0.018235   -0.243410    0.040667    0.144785   -0.119916
H    -2.242300   -1.693160    0.178582   -0.035507    0.191930   -0.022102
H    -1.623910   -1.238725   -1.413267    0.071989    0.049724   -0.017889
H     0.905000    2.271020    0.655433   -0.373458    0.061065   -0.036808
H     0.939179    1.770851   -1.044697   -0.305752    0.115693   -0.039762
H    -0.611743    1.867237   -0.171876   -0.297347   -0.378053    0.050877
Cl    3.342433   -0.468134    0.102419    0.090605   -0.030152   -0.010647
