14
Coordinates from ORCA-job opt_NEB-CI_converged E -691.913451531479
  C          -0.22337269239108     -0.99695729425836      0.17138240931913
  C          -1.62469216706543     -0.96951526567289     -0.35500482719933
  C           0.60289298132366      0.19180634377929      0.33922387613835
  H           0.30278309291641     -1.94472224763761      0.12230327693123
  O          -0.00465612662406     -0.30928596539305      1.45985109045851
  C           0.44754216606522      1.61481103104075     -0.08480075773371
  H           1.86317355924714     -0.11388473552332      0.28319512518442
  H          -2.07156598303292      0.01774230037767     -0.24418607419748
  H          -2.24278769884094     -1.69363432648697      0.17857404780065
  H          -1.62457968653120     -1.23950571977252     -1.41333535441516
  H           0.90557835355365      2.27115727393370      0.65568051057050
  H           0.93918346332680      1.77099941794195     -1.04458691001977
  H          -0.61143577629086      1.86791499175958     -0.17128943199516
  Cl          3.34193651434362     -0.46692580408823      0.10299301915781
