14
Coordinates from ORCA-job run E -691.913455871423
  C          -1.13078644836857     -0.76869504824263     -0.05620607366229
  C          -2.53183607258475     -0.66985029833565     -0.57459139814569
  C          -0.25626802586564      0.38070883505765      0.14501072785399
  H          -0.64150201648424     -1.73361935114039     -0.14171777498580
  O          -0.88079901729203     -0.13562743540188      1.25203331722957
  C          -0.36933488791418      1.82245972698714     -0.22967163068771
  H           0.96564404047169      0.03935455254080      0.07565004947685
  H          -2.94006196259458      0.32923711095464     -0.42770219217158
  H          -3.17504973763361     -1.38748881024290     -0.06233301265249
  H          -2.54628721420905     -0.90367148601937     -1.64140182165765
  H           0.11395790591380      2.43788075120133      0.52964396992406
  H           0.12245513128017      1.99528468602693     -1.18658203243995
  H          -1.41968725281631      2.11266016436534     -0.30085852444099
  Cl          2.45529955809731     -0.36579839775103     -0.13203760364032
