%mem=20GB
%NProcShared=6
#P b2plypd3/cc-pvtz
# SCF=(xqc)
# POpt=()
# int=ultrafine

comment: 

0 2
C  
C  1    R1 
C  1    R2  2    A2 
H  1    R3  2    A3  3    D3 
O  3    R4  1    A4  2    D4 
C  3    R5  1    A5  5    D5 
H  3    R6  1    A6  5    D6 
H  2    R7  1    A7  3    D7 
H  2    R8  1    A8  8    D8 
H  2    R9  1    A9  8    D9 
H  6   R10  3   A10  1   D10 
H  6   R11  3   A11  11   D11 
H  6   R12  3   A12  11   D12 
X  7   R13  3   A13  6   D13 
Cl 7   R14  14   A14  3   D14 
  Variables:
R1    =     1.497 
R2    =     1.4485
R3    =     1.0833
R4    =     1.3666
R5    =     1.4826
R6    =     1.9441
R7    =     1.0871
R8    =     1.0893
R9    =     1.0902
R10   =     1.0885
R11   =     1.0875
R12   =     1.0942
R14   =     1.2787
A2    =   123.9504
A3    =   116.3559
A4    =    63.8452
A5    =   136.0319
A6    =   105.794 
A7    =   111.2184
A8    =   110.5986
A9    =   109.6858
A10   =   110.0161
A11   =   110.3196
A12   =   111.0346
A14   =    85.8367
D3    =   198.2159
D4    =    99.3742
D5    =   247.1521
D6    =   107.361 
D7    =   339.5988
D8    =   239.1671
D9    =   120.2309
D10   =   149.5652
D11   =   119.8483
D12   =   240.415 
D14   =   175.0512
  Constants:
R13   =     1.0   
A13   =    90.0   
D13   =   310.8195
